/*--------------------------------*- C++ -*----------------------------------*\
| =========                 |                                                 |
| \\      /  F ield         | OpenFOAM: The Open Source CFD Toolbox           |
|  \\    /   O peration     | Version:  2.3.0                                 |
|   \\  /    A nd           | Web:      www.OpenFOAM.org                      |
|    \\/     M anipulation  |                                                 |
\*---------------------------------------------------------------------------*/
FoamFile
{
    version     2.0;
    format      ascii;
    class       dictionary;
    object      surfaceFeatureExtractDict;
}
// * * * * * * * * * * * * * * * * * * * * * * * * * * * * * * * * * * * * * //

test01_1000x1000_1cm_middle.stl
{
    extractionMethod    extractFromSurface; // extractFromFile or extractFromSurface
    extractFromSurfaceCoeffs
    {includedAngle   150;}
    writeObj                yes;    // Write options
}

west_surface.stl
{
    extractionMethod    extractFromSurface; // extractFromFile or extractFromSurface
    extractFromSurfaceCoeffs
    {includedAngle   150;}
    writeObj                yes;    // Write options
}

east_surface.stl
{
    extractionMethod    extractFromSurface; // extractFromFile or extractFromSurface
    extractFromSurfaceCoeffs
    {includedAngle   150;}
    writeObj                yes;    // Write options
}

north_surface.stl
{
    extractionMethod    extractFromSurface; // extractFromFile or extractFromSurface
    extractFromSurfaceCoeffs
    {includedAngle   150;}
    writeObj                yes;    // Write options
}

south_surface.stl
{
    extractionMethod    extractFromSurface; // extractFromFile or extractFromSurface
    extractFromSurfaceCoeffs
    {includedAngle   150;}
    writeObj                yes;    // Write options
}

top_surface.stl
{
    extractionMethod    extractFromSurface; // extractFromFile or extractFromSurface
    extractFromSurfaceCoeffs
    {includedAngle   150;}
    writeObj                yes;    // Write options
}

bottom_surface.stl
{
    extractionMethod    extractFromSurface; // extractFromFile or extractFromSurface
    extractFromSurfaceCoeffs
    {includedAngle   150;}
    writeObj                yes;    // Write options
}